STAAD SPACE
START JOB INFORMATION
ENGINEER DATE 08-Jul-25
END JOB INFORMATION
INPUT WIDTH 79
UNIT METER KN
JOINT COORDINATES
2 0 0 0; 3 6.00001 0 0; 4 12 0 0; 5 18 0 0; 6 0 0 6.00001; 7 6.00001 0 6.00001;
8 12 0 6.00001; 9 18 0 6.00001; 10 0 0 12; 11 6.00001 0 12; 12 12 0 12;
13 18 0 12; 14 0 0 18; 15 6.00001 0 18; 16 12 0 18; 17 18 0 18; 18 0 3.00001 0;
19 6.00001 3.00001 0; 20 12 3.00001 0; 21 18 3.00001 0; 22 0 3.00001 6.00001;
23 6.00001 3.00001 6.00001; 24 12 3.00001 6.00001; 25 18 3.00001 6.00001;
26 0 3.00001 12; 27 6.00001 3.00001 12; 28 12 3.00001 12; 29 18 3.00001 12;
30 0 3.00001 18; 31 6.00001 3.00001 18; 32 12 3.00001 18; 33 18 3.00001 18;
34 0 6.00001 0; 35 6.00001 6.00001 0; 36 12 6.00001 0; 37 18 6.00001 0;
38 0 6.00001 6.00001; 39 6.00001 6.00001 6.00001; 40 12 6.00001 6.00001;
41 18 6.00001 6.00001; 42 0 6.00001 12; 43 6.00001 6.00001 12;
44 12 6.00001 12; 45 18 6.00001 12; 46 0 6.00001 18; 47 6.00001 6.00001 18;
48 12 6.00001 18; 49 18 6.00001 18; 50 0 9.00002 0; 51 6.00001 9.00002 0;
52 12 9.00002 0; 53 18 9.00002 0; 54 0 9.00002 6.00001;
55 6.00001 9.00002 6.00001; 56 12 9.00002 6.00001; 57 18 9.00002 6.00001;
58 0 9.00002 12; 59 6.00001 9.00002 12; 60 12 9.00002 12; 61 18 9.00002 12;
62 0 9.00002 18; 63 6.00001 9.00002 18; 64 12 9.00002 18; 65 18 9.00002 18;
66 0 12 0; 67 6.00001 12 0; 68 12 12 0; 69 18 12 0; 70 0 12 6.00001;
71 6.00001 12 6.00001; 72 12 12 6.00001; 73 18 12 6.00001; 74 0 12 12;
75 6.00001 12 12; 76 12 12 12; 77 18 12 12; 78 0 12 18; 79 6.00001 12 18;
80 12 12 18; 81 18 12 18; 82 0 15 0; 83 6.00001 15 0; 84 12 15 0; 85 18 15 0;
# ... 66 like lines cut
MEMBER INCIDENCES
25 18 19; 26 19 20; 27 20 21; 28 22 23; 29 23 24; 30 24 25; 31 26 27; 32 27 28;
33 28 29; 34 30 31; 35 31 32; 36 32 33; 37 18 22; 38 19 23; 39 20 24; 40 21 25;
41 22 26; 42 23 27; 43 24 28; 44 25 29; 45 26 30; 46 27 31; 47 28 32; 48 29 33;
49 34 35; 50 35 36; 51 36 37; 52 38 39; 53 39 40; 54 40 41; 55 42 43; 56 43 44;
57 44 45; 58 46 47; 59 47 48; 60 48 49; 61 34 38; 62 35 39; 63 36 40; 64 37 41;
65 38 42; 66 39 43; 67 40 44; 68 41 45; 69 42 46; 70 43 47; 71 44 48; 72 45 49;
73 50 51; 74 51 52; 75 52 53; 76 54 55; 77 55 56; 78 56 57; 79 58 59; 80 59 60;
81 60 61; 82 62 63; 83 63 64; 84 64 65; 85 50 54; 86 51 55; 87 52 56; 88 53 57;
89 54 58; 90 55 59; 91 56 60; 92 57 61; 93 58 62; 94 59 63; 95 60 64; 96 61 65;
97 66 67; 98 67 68; 99 68 69; 100 70 71; 101 71 72; 102 72 73; 103 74 75;
104 75 76; 105 76 77; 106 78 79; 107 79 80; 108 80 81; 109 66 70; 110 67 71;
111 68 72; 112 69 73; 113 70 74; 114 71 75; 115 72 76; 116 73 77; 117 74 78;
118 75 79; 119 76 80; 120 77 81; 121 82 83; 122 83 84; 123 84 85; 124 86 87;
125 87 88; 126 88 89; 127 90 91; 128 91 92; 129 92 93; 130 94 95; 131 95 96;
132 96 97; 133 82 86; 134 83 87; 135 84 88; 136 85 89; 137 86 90; 138 87 91;
139 88 92; 140 89 93; 141 90 94; 142 91 95; 143 92 96; 144 93 97; 145 98 99;
146 99 100; 147 100 101; 148 102 103; 149 103 104; 150 104 105; 151 106 107;
152 107 108; 153 108 109; 154 110 111; 155 111 112; 156 112 113; 157 98 102;
158 99 103; 159 100 104; 160 101 105; 161 102 106; 162 103 107; 163 104 108;
164 105 109; 165 106 110; 166 107 111; 167 108 112; 168 109 113; 169 114 115;
# ... 94 like lines cut
ELEMENT INCIDENCES SHELL
742 18 21 33 30; 743 34 37 49 46; 744 50 53 65 62; 745 66 69 81 78;
746 82 85 97 94; 747 98 101 113 110; 748 114 117 129 126; 749 130 133 145 142;
750 132 131 143 144; 751 132 133 141 140; 752 134 135 143 142;
753 147 146 158 159; 754 147 148 156 155; 755 149 150 158 157;
756 161 160 172 173; 757 161 162 170 169; 758 163 164 172 171;
759 175 174 186 187; 760 175 176 184 183; 761 177 178 186 185;
762 189 188 200 201; 763 189 190 198 197; 764 191 192 200 199;
765 203 202 214 215; 766 203 204 212 211; 767 205 206 214 213;
768 217 216 228 229; 769 217 218 226 225; 770 219 220 228 227;
771 281 282 289 288; 772 290 291 295 294; 773 296 297 301 300;
774 302 303 307 306; 775 308 309 313 312; 776 216 217 229 228;
777 219 220 224 223; 778 221 222 226 225; 779 216 217 229 228;
780 219 220 224 223; 781 221 222 226 225; 782 230 231 241 240;
783 232 233 237 236; 784 234 235 239 238; 785 242 243 253 252;
786 244 245 249 248; 787 246 247 251 250; 788 254 255 265 264;
789 256 257 261 260; 790 258 259 263 262; 791 266 267 277 276;
792 268 269 273 272; 793 270 271 275 274; 794 278 279 289 288;
795 280 281 285 284; 796 282 283 287 286;
ELEMENT PROPERTY
742 TO 796 THICKNESS 0.15
DEFINE MATERIAL START
ISOTROPIC CONCRETE
E 2.17184e+07
POISSON 0.17
DENSITY 23.5615
ALPHA 5.5e-06
DAMP 0.05
G 9.28137e+06
TYPE CONCRETE
STRENGTH FCU 30000
END DEFINE MATERIAL
MEMBER PROPERTY
217 TO 358 379 TO 392 413 TO 426 447 TO 460 481 TO 494 515 TO 528 549 TO 560 -
577 TO 588 605 TO 616 633 TO 644 661 TO 672 689 TO 694 702 TO 707 -
715 TO 720 728 TO 733 PRIS YD 0.5 ZD 0.25
CONSTANTS
MATERIAL CONCRETE MEMB 37 TO 740 742 TO 796
SUPPORTS
2 TO 17 FIXED
DEFINE WIND LOAD
TYPE 1 WIND 
<! STAAD PRO GENERATED DATA DO NOT MODIFY !!!
CUSTOM:PARAMS 
!> END GENERATED DATA BLOCK
LOAD 1 LOADTYPE Dead  TITLE dl
SELFWEIGHT Y -1 LIST ALL
ELEMENT LOAD
742 TO 796 PR 2
LOAD 2 LOADTYPE Live  TITLE ll
ELEMENT LOAD
742 TO 749 PR 5
753 TO 770 776 TO 781 PR 4.5
771 782 TO 796 PR 4
772 TO 775 PR 3.5
LOAD COMB 3 dl+ll
1 1.0 2 1.0 
LOAD COMB 4 1.5(dl+ll)
1 1.5 2 1.5 
FINISH
